/*--------------------------------*- C++ -*----------------------------------*\
| =========                 |                                                 |
| \\      /  F ield         | OpenFOAM: The Open Source CFD Toolbox           |
|  \\    /   O peration     | Version:  2.2.2                                 |
|   \\  /    A nd           | Web:      www.OpenFOAM.org                      |
|    \\/     M anipulation  |                                                 |
\*---------------------------------------------------------------------------*/
FoamFile
{
    version     2.0;
    format      ascii;
    class       dictionary;
    object      fvSolution;
}
// * * * * * * * * * * * * * * * * * * * * * * * * * * * * * * * * * * * * * //

solvers
{
      p_rgh              // linear equation system solver for p
    {
        solver          GAMG;           // very efficient multigrid solver
        tolerance       1e-6;//1e-05;          // solver finishes if either absolute
        relTol          0.0;          // tolerance is reached or the relative
                                        // tolerance here
        minIter         1;              // a minimum number of iterations
        maxIter         10000;            // limitation of iterions number
        smoother        DICGaussSeidel;            // setting for GAMG
        nPreSweeps      0;//1;              // 1 for p, set to 0 for all other!
        nPostSweeps     2;              // 2 is fine
        nFinestSweeps   2;              // 2 is fine
        scaleCorrection true;           // true is fine
        directSolveCoarsestLevel false; // false is fine
        cacheAgglomeration on;          // on is fine; set to off, if dynamic
                                        // mesh refinement is used!
        nCellsInCoarsestLevel 500;      // 500 is fine,
                                        // otherwise sqrt(number of cells)
        agglomerator    faceAreaPair;   // faceAreaPair is fine
        mergeLevels     3;//1;              // 1 is fine
    }
    
//     p_rgh
//     {
//         solver          PCG;
//         preconditioner  DIC;
//         tolerance       1e-08;
//         relTol          0.01;
 //   }

    "(U|T|k|epsilon|R)"
    {
        solver          PBiCG;
        preconditioner  DILU;
        tolerance       1e-05;
        relTol          0.1;
    }
}

SIMPLE
{
    nNonOrthogonalCorrectors 5;
    pRefPoint  (-750 -450 780);//pRefCell        0;
    pRefValue       0;

    residualControl
    {
        p_rgh           1e-3;
        U               1e-4;
        T               1e-3;

        // possibly check turbulence fields
        "(k|epsilon|omega)" 1e-3;
    }
}

relaxationFactors
{
    fields
    {
        p_rgh           0.1;
    }
    equations
    {
        U               0.3;
        T               0.5;
        "(k|epsilon|R)" 0.7;
    }
}
cache
{
    grad(U);
}

// ************************************************************************* //
