/*--------------------------------*- C++ -*----------------------------------*\
| =========                 |                                                 |
| \\      /  F ield         | OpenFOAM: The Open Source CFD Toolbox           |
|  \\    /   O peration     | Version:  2.2.2                                 |
|   \\  /    A nd           | Web:      www.OpenFOAM.org                      |
|    \\/     M anipulation  |                                                 |
\*---------------------------------------------------------------------------*/
FoamFile
{
    version     2.0;
    format      ascii;
    class       dictionary;
    location    "system";
    object      refineMeshDict;
}
// * * * * * * * * * * * * * * * * * * * * * * * * * * * * * * * * * * * * * //

/*set             c1;

coordinateSystem global;

globalCoeffs
{
    tan1            ( 1 0 0 );
    tan2            ( 0 1 0 );
}

patchLocalCoeffs
{
    patch           outside;
    tan1            ( 1 0 0 );
}

directions      (//normal
                 tan1
                  //tan2
);*/

set             c2;

coordinateSystem global;

globalCoeffs
{
    tan1            ( 1 0 0 );
    tan2            ( 0 1 0 );
}

patchLocalCoeffs
{
    patch           outside;
    tan1            ( 1 0 0 );
}

directions      (//normal
                 tan1
                 tan2
);
useHexTopology  yes;//no;

geometricCut    yes;

writeMesh       yes;//no;


// ************************************************************************* //
