/*--------------------------------*- C++ -*----------------------------------*\
| =========                 |                                                 |
| \\      /  F ield         | OpenFOAM: The Open Source CFD Toolbox           |
|  \\    /   O peration     | Version:  2.1.0                                 |
|   \\  /    A nd           | Web:      www.OpenFOAM.org                      |
|    \\/     M anipulation  |                                                 |
\*---------------------------------------------------------------------------*/
FoamFile
{
    version     2.0;
    format      ascii;
    class       dictionary;
    location    "system";
    object      sampleDict;
}
// * * * * * * * * * * * * * * * * * * * * * * * * * * * * * * * * * * * * * //

//#include        "constant/polyMesh/DomainDim"

interpolationScheme cellPoint;

setFormat       raw;

sets
(
    y1 
    {
        type    uniform;
        axis    z;
        start   ( 0 475.0 0 );
        end     ( 0 475.0 8.95 );
        nPoints 10000;
    }

    y2 
    {
        type    uniform;
        axis    z;
        start   ( 100 475.0 0 );
        end     ( 100 475.0 8.95 );
        nPoints 10000;
    }
    y3 
    {
        type    uniform;
        axis    z;
        start   ( 500 475.0 0 );
        end     ( 500 475.0 8.95 );
        nPoints 10000;
    }
    y4
    {
        type    uniform;
        axis    z;
        start   ( 1000 475.0 0 );
        end     ( 1000 475.0 8.95 );
        nPoints 10000;
    }
    y5 
    {
        type    uniform;
        axis    z;
        start   ( 1100 475.0 0 );
        end     ( 1100 475.0 8.95 );
        nPoints 10000;
    }
    y6 
    {
        type    uniform;
        axis    z;
        start   ( 1220 475.0 0 );
        end     ( 1220 475.0 8.95 );
        nPoints 10000;
    }
    center 
    {
        type    uniform;
        axis    z;
        start   ( 610 475.0 0 );
        end     ( 610 475.0 8.95 );
        nPoints 10;
    }
   z1
      {
          type    uniform;
          axis    x;
          start   ( 0 475 9.0 );
          end     ( 1220 475 9.0 );
          nPoints 10000;
      }
   z2
      {
          type    uniform;
          axis    x;
          start   ( 0 475 8.9 );
          end     ( 1220 475 8.9 );
          nPoints 10000;
      } 
   z3
      {
          type    uniform;
          axis    x;
          start   ( 0 475 8.8 );
          end     ( 1220 475 8.8 );
          nPoints 10000;
      } 
   z4
      {
          type    uniform;
          axis    x;
          start   ( 0 475 8.5 );
          end     ( 1220 475 8.5 );
          nPoints 10000;
      } 
   z5
      {
          type    uniform;
          axis    x;
          start   ( 0 475 7.9 );
          end     ( 1220 475 7.9 );
          nPoints 10000;
      } 
   z6
      {
          type    uniform;
          axis    x;
          start   ( 0 475 7.45 );
          end     ( 1220 475 7.45 );
          nPoints 10000;
      }  
   z7
      {
          type    uniform;
          axis    x;
          start   ( 0 475 7.15 );
          end     ( 1220 475 7.15 );
          nPoints 10000;
      }  
   z8
      {
          type    uniform;
          axis    x;
          start   ( 0 475 6.85 );
          end     ( 1220 475 6.85 );
          nPoints 10000;
      }  
   z9
      {
          type    uniform;
          axis    x;
          start   ( 0 475 6.2 );
          end     ( 1220 475 6.2 );
          nPoints 10000;
      }  
   z10
      {
          type    uniform;
          axis    x;
          start   ( 0 475 5.535 );
          end     ( 1220 475 5.535 );
          nPoints 10000;
      }  
   z11
      {
          type    uniform;
          axis    x;
          start   ( 0 475 0.1 );
          end     ( 1220 475 0.1 );
          nPoints 10000;
      }  
);


fields
(
    mag U
    nut
    epsilon
    k
    T
    sourcek
    TSrc
);

// ************************************************************************* //
