/*--------------------------------*- C++ -*----------------------------------*\
| =========                 |                                                 |
| \\      /  F ield         | OpenFOAM: The Open Source CFD Toolbox           |
|  \\    /   O peration     | Version:  2.2.2                                 |
|   \\  /    A nd           | Web:      www.OpenFOAM.org                      |
|    \\/     M anipulation  |                                                 |
\*---------------------------------------------------------------------------*/
FoamFile
{
    version     2.0;
    format      ascii;
    class       dictionary;
    location    "system";
    object      topoSetDict;
}
// * * * * * * * * * * * * * * * * * * * * * * * * * * * * * * * * * * * * * //

actions
(
    /*{
        name    c0;
        type    cellSet;
        action  new;
        source  surfaceToCell;//boxToCell;
        sourceInfo
        {
           file  "constant/triSurface/lake_smoothed02.stl";//box (0 0 7.0) (1200 1000 7.8);
           useSurfaceOrientation   false;
           outsidePoints    ((600 600 7.00));
           includeCut     false;
           includeInside  false;
           includeOutside false;
           nearDistance   -1;
           curvature    0.9;
        }
    }
    {
        name    boundaryFaces;
        type    faceSet;
        action  new;
        source  patchToFace;
        sourceInfo
        {
            name bottomLake;
        }
    }
    {
        name    c1;
        type    cellSet;
        action  new;
        source  faceToCell;
        sourceInfo
        {
            set boundaryFaces;
            //option neighbour; // cell with neighbour in faceSet
            //option owner; // ,, owner
            option any; // cell with any face in faceSet
            //option all; // cell with all faces in faceSet
        }
    }*/


    {
        name    c1;
        type    cellSet;
        action  new;
        source  boxToCell;
        sourceInfo
        {
            box (500 400 4.0399) (2500 1450 100.03);//box (1000 450 780) (2310 1300 800);
        }
    }

    {
        name    c2;
        type    cellSet;
        action  new;
        source  boxToCell;
        sourceInfo
        {
            box (1000 500 4.0399) (2050 1350 10.03);//box (1000 450 780) (2310 1300 800);
        }
    }
);


// ************************************************************************* //
