/*--------------------------------*- C++ -*----------------------------------*\
| =========                 |                                                 |
| \\      /  F ield         | OpenFOAM: The Open Source CFD Toolbox           |
|  \\    /   O peration     | Version:  2.2.2                                 |
|   \\  /    A nd           | Web:      www.OpenFOAM.org                      |
|    \\/     M anipulation  |                                                 |
\*---------------------------------------------------------------------------*/
FoamFile
{
    version     2.0;
    format      ascii;
    class       dictionary;
    object      RASProperties;
}
// * * * * * * * * * * * * * * * * * * * * * * * * * * * * * * * * * * * * * //

RASModel            L_kEpsilon_SS;//L_realizableKE_SS_02; //kEpsilon;

turbulence          on;

printCoeffs         on;

L_kEpsilon_SSCoeffs
{
    Cmu         0.0333;
    C1          1.176;
    C2          1.92;
    //C3          -4.40;
    Cb          -0.33;
    sigmak      1.00;
    sigmaEps    1.30; //Original value:1.44
    Prt         1.00;
}

// ************************************************************************* //
