/*--------------------------------*- C++ -*----------------------------------*\
| =========                 |                                                 |
| \\      /  F ield         | OpenFOAM: The Open Source CFD Toolbox           |
|  \\    /   O peration     | Version:  2.2.2                                 |
|   \\  /    A nd           | Web:      www.OpenFOAM.org                      |
|    \\/     M anipulation  |                                                 |
\*---------------------------------------------------------------------------*/
FoamFile
{
    version     2.0;
    format      ascii;
    class       dictionary;
    object      transportProperties;
}
// * * * * * * * * * * * * * * * * * * * * * * * * * * * * * * * * * * * * * //

transportModel  Newtonian;

nu              nu [0 2 -1 0 0 0 0] 15.11e-06;
// Thermal expansion coefficient
beta            beta [0 0 0 -1 0 0 0] 3.43e-03;

// Reference temperature
TRef            TRef [0 0 0 1 0 0 0] 293;

// Laminar Prandtl number
Pr              Pr [0 0 0 0 0 0 0] 0.713;

// Turbulent Prandtl number
Prt             Prt [0 0 0 0 0 0 0] 0.70;

// Cp0
Cp0             Cp0 [0 2 -2 -1 0 0 0] 1.005e3;

// rho0
rho0            rho0 [1 -3 0 0 0 0 0] 1.205;

// Tair
Tair             Tair [0 0 0 1 0 0 0] 302.27;

// Twater
Twater           Twater [0 0 0 1 0 0 0] 302.09;

// D
D            D [0 2 -1 0 0 0 0] 2.2e-5;

// n
n            n [0 0 0 0 0 0 0] 0.333;

// kvis
kvis             kvis [0 2 -1 0 0 0 0] 15.11e-6;

// RH
RH             RH [0 0 0 0 0 0 0] 77;

// Patm
Patm             Patm [0 2 -2 0 0 0 0] 102000;

Sc              Sc [0 0 0 0 0 0 0] 0.72;

kappa0           kappa0 [1 1 -3 -1 0 0 0] 0.03;

X_s0          X_s0 [0 0 0 0 0 0 0] 0.02533;

X_a0          X_a0 [0 0 0 0 0 0 0] 0.01953;

// ************************************************************************* //
